21
0
C 1.967773 -1.13831 -0.543556
C 0.645441 0.992465 -1.70257
C 2.234543 -0.777031 -1.830163
C 1.58102 0.289498 -2.446978
C -3.016591 1.741695 0.612453
C 0.878228 -0.578833 0.189787
C 0.263598 0.519752 -0.384926
O 1.503426 -1.267264 2.463581
O -2.236631 0.279797 -1.121948
O -0.715723 -1.175512 1.929332
C 0.633549 -0.964428 1.667591
C -2.016979 0.998229 -0.174489
O -0.753226 1.137627 0.363041
H -0.693787 -1.606394 2.839317
H 2.522198 -1.99994 -0.13289
H 0.118692 1.85018 -2.156963
H 3.099397 -1.279973 -2.334072
H 1.852263 0.669541 -3.409804
H -4.006237 1.796931 0.063728
H -3.090694 1.158956 1.570798
H -2.624328 2.785921 0.842982
